9
Properties=species:S:1:pos:R:3 pbc="F F F"
C        0.00000000       1.16572500      -0.19995000
O        0.00000000       0.00000000       0.60011000
C        0.00000000      -1.16572500      -0.19995000
H        0.00000000       2.01776900       0.48020300
H        0.89178400       1.21432000      -0.84047400
H       -0.89178400       1.21432000      -0.84047400
H        0.00000000      -2.01776900       0.48020300
H       -0.89178400      -1.21432000      -0.84047400
H        0.89178400      -1.21432000      -0.84047400
